data_cif

_audit_creation_method             'generated by GULP'

_symmetry_space_group_name_H-M     'P N M A         '
_symmetry_Int_Tables_number        1

loop_
_symmetry_equiv_pos_site_id
_symmetry_equiv_pos_as_xyz
   1     +x,+y,+z                
   2     1/2-x,-y,1/2+z          
   3     1/2+x,1/2-y,1/2-z       
   4     -x,1/2+y,-z             
   5     -x,-y,-z                
   6     1/2+x,+y,1/2-z          
   7     1/2-x,1/2+y,1/2+z       
   8     +x,1/2-y,+z             
_cell_length_a                       40.9554
_cell_length_b                        0.3751
_cell_length_c                        8.0841
_cell_angle_alpha                   90.0000
_cell_angle_beta                   123.1126
_cell_angle_gamma                   90.0000

loop_
_atom_site_label
_atom_site_fract_x
_atom_site_fract_y
_atom_site_fract_z
_atom_site_occupancy
  Bi          0.17735      0.12500      0.03490  1.0000
  Bi          0.17740      0.62500      0.03926  1.0000
  Bi          0.67770      0.12500      0.03688  1.0000
  Bi          0.67770      0.62500      0.03688  1.0000
  Bi          0.07242      0.37506      0.53636  1.0000
  Bi          0.07242      0.87494      0.53636  1.0000
  Bi          0.57229      0.37500      0.53656  1.0000
  Bi          0.57229      0.87500      0.53656  1.0000
  Bi          0.42771      0.12500      0.46341  1.0000
  Bi          0.42772      0.62500      0.46342  1.0000
  Bi          0.92774      0.12500      0.46322  1.0000
  Bi          0.92773      0.62500      0.46327  1.0000
  Bi          0.32243      0.37573      0.96228  1.0000
  Bi          0.32243      0.87427      0.96228  1.0000
  Bi          0.82230      0.37499      0.96309  1.0000
  Bi          0.82230      0.87501      0.96309  1.0000
  F           0.25445      0.12500      0.16067  1.0000
  F           0.24141      0.62500     -0.90581  1.0000
  F           0.79273      0.12500      0.54401  1.0000
  F           0.79232      0.62500      0.54462  1.0000
  F           0.50221      0.37558      0.31041  1.0000
  F           0.50221      0.87442      0.31041  1.0000
  F           0.99599      0.40356      0.94026  1.0000
  F           0.99599      0.84644      0.94026  1.0000
  F           0.00786      0.12500      0.52705  1.0000
  F           0.00455      0.62500      0.69038  1.0000
  F           0.50090      0.12500      0.70216  1.0000
  F           0.49759      0.62500      0.63297  1.0000
  F           0.24582      0.39087      0.87005  1.0000
  F           0.24582      0.85913      0.87005  1.0000
  F           0.70782      0.37683      0.44892  1.0000
  F           0.70782      0.87317      0.44892  1.0000
  F           0.07261      0.92816      0.53648  1.0000
  F           0.07233      0.42829      0.53712  1.0000
  F           0.57232      0.92781      0.53703  1.0000
  F           0.57232      0.42781      0.53703  1.0000
  F           0.17791      0.56858      0.02725  1.0000
  F           0.17682      0.08549      0.02641  1.0000
  F           0.67774      0.57039      0.03656  1.0000
  F           0.67774      0.07039      0.03655  1.0000
  F           0.32217      0.31997      0.96407  1.0000
  F           0.31427      0.81772      0.99194  1.0000
  F           0.82225      0.32032      0.96353  1.0000
  F           0.82225      0.82033      0.96352  1.0000
  F           0.42768      0.17780      0.46295  1.0000
  F           0.42768      0.67779      0.46296  1.0000
  F           0.92765      0.17781      0.46309  1.0000
  F           0.92766      0.67777      0.46309  1.0000
  F           0.42768      0.57221      0.46296  1.0000
  F           0.42768      0.07220      0.46295  1.0000
  F           0.92766      0.57223      0.46309  1.0000
  F           0.92765      0.07219      0.46309  1.0000
  F           0.32217      0.93003      0.96407  1.0000
  F           0.31427      0.43228      0.99194  1.0000
  F           0.82225      0.92968      0.96353  1.0000
  F           0.82225      0.42967      0.96352  1.0000
  F           0.17682      0.16451      0.02641  1.0000
  F           0.17791      0.68142      0.02725  1.0000
  F           0.67774      0.17961      0.03655  1.0000
  F           0.67774      0.67961      0.03656  1.0000
  F           0.07261      0.32184      0.53648  1.0000
  F           0.07233      0.82171      0.53712  1.0000
  F           0.57232      0.32219      0.53703  1.0000
  F           0.57232      0.82219      0.53703  1.0000
