data_cif

_audit_creation_method             'generated by GULP'

_symmetry_space_group_name_H-M     'P N M A         '
_symmetry_Int_Tables_number        1

loop_
_symmetry_equiv_pos_site_id
_symmetry_equiv_pos_as_xyz
   1     +x,+y,+z                
   2     1/2-x,-y,1/2+z          
   3     1/2+x,1/2-y,1/2-z       
   4     -x,1/2+y,-z             
   5     -x,-y,-z                
   6     1/2+x,+y,1/2-z          
   7     1/2-x,1/2+y,1/2+z       
   8     +x,1/2-y,+z             
_cell_length_a                       32.9679
_cell_length_b                       11.6033
_cell_length_c                        7.7486
_cell_angle_alpha                  102.0452
_cell_angle_beta                    89.9326
_cell_angle_gamma                   90.3034

loop_
_atom_site_label
_atom_site_fract_x
_atom_site_fract_y
_atom_site_fract_z
_atom_site_occupancy
  Bi          0.17709      0.12491      0.03162  1.0000
  Bi          0.17709      0.62491      0.03161  1.0000
  Bi          0.67710      0.12495      0.03169  1.0000
  Bi          0.67704      0.62494      0.03208  1.0000
  Bi          0.07291      0.37491      0.53164  1.0000
  Bi          0.07291      0.87491      0.53164  1.0000
  Bi          0.57291      0.37496      0.53198  1.0000
  Bi          0.57282      0.87559      0.53252  1.0000
  Bi          0.42708      0.12511      0.46843  1.0000
  Bi          0.42711      0.62508      0.46825  1.0000
  Bi          0.92709      0.12509      0.46838  1.0000
  Bi          0.92709      0.62509      0.46835  1.0000
  Bi          0.32292      0.37510      0.96836  1.0000
  Bi          0.32291      0.87508      0.96840  1.0000
  Bi          0.82291      0.37510      0.96839  1.0000
  Bi          0.82292      0.87508      0.96838  1.0000
  F           0.26814      0.12513      0.66877  1.0000
  F           0.26811      0.62517      0.66878  1.0000
  F           0.76808      0.12498      0.66875  1.0000
  F           0.76818      0.62535      0.66882  1.0000
  F           0.48176      0.37470      0.16866  1.0000
  F           0.48221      0.87553      0.16987  1.0000
  F           0.98187      0.37514      0.16877  1.0000
  F           0.98186      0.87516      0.16877  1.0000
  F           0.01812      0.12484      0.83123  1.0000
  F           0.01813      0.62486      0.83123  1.0000
  F           0.51822      0.12443      0.83113  1.0000
  F           0.51795      0.62528      0.83125  1.0000
  F           0.23185      0.37483      0.33123  1.0000
  F           0.23187      0.87487      0.33123  1.0000
  F           0.73197      0.37463      0.33124  1.0000
  F           0.73162      0.87506      0.33144  1.0000
  F           0.08280      0.97620      0.40492  1.0000
  F           0.08280      0.47623      0.40491  1.0000
  F           0.58284      0.97000      0.40460  1.0000
  F           0.58294      0.47609      0.40592  1.0000
  F           0.16705      0.58398      0.91782  1.0000
  F           0.16706      0.08436      0.91781  1.0000
  F           0.66718      0.58766      0.91738  1.0000
  F           0.66696      0.09146      0.91768  1.0000
  F           0.33279      0.27363      0.09515  1.0000
  F           0.33279      0.77409      0.09507  1.0000
  F           0.83280      0.27371      0.09513  1.0000
  F           0.83279      0.77403      0.09510  1.0000
  F           0.41707      0.17021      0.58203  1.0000
  F           0.41706      0.65314      0.58263  1.0000
  F           0.91706      0.16507      0.58222  1.0000
  F           0.91706      0.66269      0.58230  1.0000
  F           0.41714      0.53812      0.59517  1.0000
  F           0.41727      0.02362      0.59497  1.0000
  F           0.91720      0.52376      0.59509  1.0000
  F           0.91718      0.02382      0.59508  1.0000
  F           0.33297      0.91725      0.08218  1.0000
  F           0.33291      0.41360      0.08218  1.0000
  F           0.83291      0.91477      0.08220  1.0000
  F           0.83297      0.41642      0.08216  1.0000
  F           0.16720      0.22611      0.90489  1.0000
  F           0.16720      0.72615      0.90488  1.0000
  F           0.66721      0.22756      0.90494  1.0000
  F           0.66739      0.73072      0.09652  1.0000
  F           0.08293      0.33690      0.41773  1.0000
  F           0.08293      0.83639      0.41774  1.0000
  F           0.58297      0.36346      0.41723  1.0000
  F           0.58260      0.72115      0.35280  1.0000
